data_911221472-TOPOS_crb
_audit_creation_date                2015-11-18
_audit_creation_method              ToposPro
_chemical_formula_structural        crb
_chemical_name_systematic
;
crb
;
_chemical_formula_sum               C1
_citation_special_details
;
Wavelength = 0.71073.; Estimated standard deviations in the unit-cell
 dimensions: esd(a)=0.0000 esd(b)=0.0000 esd(c)=0.0000 esd(alfa)=0.00
0 esd(beta)=0.000 esd(gamma)=0.000.; TRMX 0.000 1.000 0.000 -1.000 0.
000 0.000 0.000 0.000 1.000 tI 5; SPGR I4/mmm
;
_cell_length_a                      4.3629
_cell_length_b                      4.3629
_cell_length_c                      2.5084
_cell_angle_alpha                   90
_cell_angle_beta                    90
_cell_angle_gamma                   90
_cell_volume                        47.74713
_cell_formula_units_Z               8
_symmetry_space_group_name_H-M      'I 4/m m m'
_symmetry_Int_Tables_number         139
_refine_ls_R_factor_all             0
loop_
_symmetry_equiv_pos_site_id
_symmetry_equiv_pos_as_xyz
1 x,y,z
2 -x,-y,z
3 x,-y,-z
4 -x,y,-z
5 -y,-x,-z
6 y,x,-z
7 y,-x,z
8 -y,x,z
9 -x,-y,-z
10 x,y,-z
11 -x,y,z
12 x,-y,z
13 y,x,z
14 -y,-x,z
15 -y,x,-z
16 y,-x,-z
17 1/2+x,1/2+y,1/2+z
18 1/2-x,1/2-y,1/2+z
19 1/2+x,1/2-y,1/2-z
20 1/2-x,1/2+y,1/2-z
21 1/2-y,1/2-x,1/2-z
22 1/2+y,1/2+x,1/2-z
23 1/2+y,1/2-x,1/2+z
24 1/2-y,1/2+x,1/2+z
25 1/2-x,1/2-y,1/2-z
26 1/2+x,1/2+y,1/2-z
27 1/2-x,1/2+y,1/2+z
28 1/2+x,1/2-y,1/2+z
29 1/2+y,1/2+x,1/2+z
30 1/2-y,1/2-x,1/2+z
31 1/2-y,1/2+x,1/2-z
32 1/2+y,1/2-x,1/2-z
loop_
_atom_site_label
_atom_site_type_symbol
_atom_site_symmetry_multiplicity
_atom_site_fract_x
_atom_site_fract_y
_atom_site_fract_z
_atom_site_occupancy
C1 C 8 0.81952 0.18048 0.50000 1.0000
loop_
_topos_bond_atom_site_label_1
_topos_bond_atom_site_label_2
_topos_bond_site_symmetry_1
_topos_bond_site_symmetry_2
_topos_bond_distance
_topos_bond_voronoi_solidangle
_topos_bond_type
_topos_bond_multiplicity
C1 C1 1_0_0_0 18_1_0_-1 1.5195 23.73 V 8
C1 C1 1_0_0_0 4_2_0_1 1.5748 22.24 V 8
C1 C1 1_0_0_0 3_0_1_1 2.7881 2.77 W 8
#End of data_911221472-TOPOS_crb
