data_48-TOPOS_lon
_audit_creation_date                2015-11-20
_audit_creation_method              ToposPro
_chemical_formula_structural        lon
_chemical_formula_sum               C1
_citation_special_details
;
File: 1_P_1_New_P63_mmc.cif. 
;
_cell_length_a                      2.5073
_cell_length_b                      2.5073
_cell_length_c                      4.1692
_cell_angle_alpha                   90
_cell_angle_beta                    90
_cell_angle_gamma                   120
_cell_volume                        22.69844
_cell_formula_units_Z               4
_symmetry_space_group_name_H-M      'P 63/m m c'
_symmetry_Int_Tables_number         194
_refine_ls_R_factor_all             0
loop_
_symmetry_equiv_pos_site_id
_symmetry_equiv_pos_as_xyz
1 x,y,z
2 -x,-y,1/2+z
3 -y,x-y,z
4 -x+y,-x,z
5 x-y,x,1/2+z
6 y,-x+y,1/2+z
7 x-y,-y,-z
8 -x,-x+y,-z
9 y,x,-z
10 -y,-x,1/2-z
11 x,x-y,1/2-z
12 -x+y,y,1/2-z
13 -x,-y,-z
14 x,y,1/2-z
15 y,-x+y,-z
16 x-y,x,-z
17 -x+y,-x,1/2-z
18 -y,x-y,1/2-z
19 -x+y,y,z
20 x,x-y,z
21 -y,-x,z
22 y,x,1/2+z
23 -x,-x+y,1/2+z
24 x-y,-y,1/2+z
loop_
_atom_site_label
_atom_site_type_symbol
_atom_site_symmetry_multiplicity
_atom_site_fract_x
_atom_site_fract_y
_atom_site_fract_z
_atom_site_occupancy
C1 C 4 0.33333 0.66667 0.06243 1.0000
loop_
_topos_bond_atom_site_label_1
_topos_bond_atom_site_label_2
_topos_bond_site_symmetry_1
_topos_bond_site_symmetry_2
_topos_bond_distance
_topos_bond_voronoi_solidangle
_topos_bond_type
_topos_bond_multiplicity
C1 C1 1_0_0_0 7_1_2_0 1.5383 22.07 V 6
C1 C1 1_0_0_0 10_1_1_0 1.5640 23.16 V 2
C1 C1 1_0_0_0 10_1_1_-1 2.6052 2.69 W 2
#End of data_48-TOPOS_lon

